 Head values for selected MODFLOW cells
   2615.32   2257.27   2172.56   2103.93   2240.43   2173.52   2132.82   2059.39   2056.29   1858.02
   2615.32   2257.27   2172.56   2103.93   2240.43   2173.52   2132.82   2059.40   2056.30   1858.03
   2615.32   2257.27   2172.56   2103.93   2240.43   2173.52   2132.82   2059.40   2056.30   1858.03
   2615.32   2257.27   2172.56   2103.93   2240.43   2173.52   2132.81   2059.40   2056.30   1858.03
   2615.32   2257.27   2172.56   2103.93   2240.43   2173.52   2132.81   2059.40   2056.30   1858.03
   2615.32   2257.27   2172.56   2103.93   2240.43   2173.52   2132.81   2059.40   2056.30   1858.04
   2615.32   2257.27   2172.56   2103.93   2240.43   2173.52   2132.80   2059.41   2056.30   1858.04
   2615.32   2257.27   2172.56   2103.93   2240.43   2173.52   2132.80   2059.41   2056.30   1858.04
   2615.32   2257.27   2172.56   2103.93   2240.43   2173.52   2132.80   2059.41   2056.31   1858.05
   2615.32   2257.27   2172.56   2103.93   2240.43   2173.52   2132.79   2059.41   2056.31   1858.05
   2615.32   2257.27   2172.56   2103.93   2240.43   2173.52   2132.79   2059.41   2056.31   1858.06
   2615.32   2257.27   2172.56   2103.93   2240.43   2173.52   2132.79   2059.42   2056.31   1858.06
   2615.32   2257.27   2172.56   2103.93   2240.43   2173.52   2132.78   2059.42   2056.31   1858.07
   2615.32   2257.27   2172.56   2103.93   2240.43   2173.52   2132.78   2059.42   2056.31   1858.07
   2615.32   2257.27   2172.56   2103.93   2240.43   2173.52   2132.78   2059.42   2056.31   1858.08
   2615.32   2257.27   2172.56   2103.93   2240.43   2173.52   2132.78   2059.42   2056.31   1858.09
   2615.32   2257.27   2172.56   2103.94   2240.43   2173.52   2132.77   2059.43   2056.32   1858.09
   2615.32   2257.27   2172.56   2103.94   2240.43   2173.52   2132.77   2059.43   2056.32   1858.10
   2615.32   2257.27   2172.56   2103.94   2240.43   2173.52   2132.77   2059.43   2056.32   1858.10
   2615.32   2257.27   2172.56   2103.94   2240.43   2173.52   2132.76   2059.43   2056.32   1858.11
   2615.32   2257.27   2172.56   2103.94   2240.43   2173.52   2132.76   2059.44   2056.32   1858.12
   2615.32   2257.27   2172.56   2103.94   2240.43   2173.52   2132.76   2059.44   2056.32   1858.13
   2615.32   2257.27   2172.56   2103.94   2240.43   2173.52   2132.75   2059.44   2056.32   1858.13
   2615.32   2257.27   2172.56   2103.94   2240.43   2173.52   2132.75   2059.44   2056.33   1858.14
   2615.32   2257.27   2172.56   2103.94   2240.43   2173.52   2132.75   2059.44   2056.33   1858.15
   2615.32   2257.27   2172.56   2103.94   2240.43   2173.52   2132.74   2059.45   2056.33   1858.16
   2615.32   2257.27   2172.56   2103.94   2240.43   2173.52   2132.74   2059.45   2056.33   1858.17
   2615.32   2257.27   2172.56   2103.94   2240.43   2173.52   2132.74   2059.45   2056.33   1858.17
   2615.32   2257.27   2172.56   2103.94   2240.43   2173.52   2132.74   2059.45   2056.33   1858.18
   2615.32   2257.27   2172.56   2103.94   2240.43   2173.52   2132.73   2059.45   2056.33   1858.19
   2615.32   2257.27   2172.56   2103.94   2240.43   2173.52   2132.73   2059.46   2056.33   1858.20
   2615.32   2257.27   2172.56   2103.94   2240.43   2173.52   2132.73   2059.46   2056.34   1858.20
   2615.32   2257.27   2172.56   2103.94   2240.43   2173.52   2132.72   2059.46   2056.34   1858.21
   2615.32   2257.27   2172.56   2103.94   2240.43   2173.52   2132.72   2059.46   2056.34   1858.22
   2615.32   2257.27   2172.56   2103.94   2240.43   2173.52   2132.72   2059.46   2056.34   1858.23
